Version 4
SHEET 1 2412 680
WIRE 1712 -144 1568 -144
WIRE 400 -128 128 -128
WIRE 528 -128 400 -128
WIRE 592 -128 528 -128
WIRE 1568 -128 1328 -128
WIRE 1584 -80 1568 -80
WIRE 1600 -80 1584 -80
WIRE 1712 -80 1680 -80
WIRE 400 -64 400 -80
WIRE 1872 -64 1840 -64
WIRE 1984 -64 1872 -64
WIRE 2096 -64 1984 -64
WIRE 2320 -64 2096 -64
WIRE 1584 -32 1584 -80
WIRE 1712 -32 1712 -80
WIRE 400 16 400 -64
WIRE 416 16 400 16
WIRE 528 16 528 -64
WIRE 528 16 496 16
WIRE 688 32 656 32
WIRE 800 32 688 32
WIRE 912 32 800 32
WIRE 1136 32 912 32
WIRE 1328 32 1328 -128
WIRE 1328 32 1296 32
WIRE 1344 32 1328 32
WIRE 1408 32 1344 32
WIRE 1504 32 1408 32
WIRE 1840 32 1840 -64
WIRE 1840 32 1792 32
WIRE 1872 48 1872 16
WIRE 400 64 400 16
WIRE 528 64 528 16
WIRE 2320 64 2320 -64
WIRE 128 128 128 -128
WIRE 128 128 112 128
WIRE 160 128 128 128
WIRE 224 128 160 128
WIRE 320 128 224 128
WIRE 656 128 656 32
WIRE 656 128 608 128
WIRE 1296 128 1296 32
WIRE 1408 128 1408 32
WIRE 1504 128 1408 128
WIRE 1872 128 1872 112
WIRE 1872 128 1792 128
WIRE 2096 128 2096 16
WIRE 2096 128 1872 128
WIRE 688 144 688 112
WIRE 1136 160 1136 32
WIRE 224 224 224 128
WIRE 320 224 224 224
WIRE 688 224 688 208
WIRE 688 224 608 224
WIRE 912 224 912 112
WIRE 912 224 688 224
WIRE 1344 224 1344 112
WIRE 1504 224 1344 224
WIRE 1792 224 1776 224
WIRE 1840 224 1792 224
WIRE 1856 224 1840 224
WIRE 1872 224 1856 224
WIRE 1968 224 1920 224
WIRE 2096 224 2096 128
WIRE 2096 224 2048 224
WIRE 2320 240 2320 144
WIRE 1840 304 1840 224
WIRE 1920 304 1840 304
WIRE 2096 304 2096 224
WIRE 2096 304 1984 304
WIRE 160 320 160 208
WIRE 320 320 160 320
WIRE 608 320 592 320
WIRE 656 320 608 320
WIRE 672 320 656 320
WIRE 688 320 672 320
WIRE 784 320 736 320
WIRE 912 320 912 224
WIRE 912 320 864 320
WIRE 1504 320 1440 320
WIRE 1824 320 1792 320
WIRE 112 336 112 128
WIRE 160 336 160 320
WIRE 1136 336 1136 240
WIRE 656 400 656 320
WIRE 736 400 656 400
WIRE 912 400 912 320
WIRE 912 400 800 400
WIRE 320 416 256 416
WIRE 640 416 608 416
WIRE 1440 432 1440 320
WIRE 1584 432 1584 384
WIRE 1584 432 1440 432
WIRE 1712 432 1712 384
WIRE 1712 432 1584 432
WIRE 2096 432 2096 384
WIRE 2096 432 1712 432
WIRE 1584 464 1584 432
WIRE 1296 512 1296 208
WIRE 1824 512 1824 320
WIRE 1824 512 1296 512
WIRE 256 528 256 416
WIRE 400 528 400 480
WIRE 400 528 256 528
WIRE 528 528 528 480
WIRE 528 528 400 528
WIRE 912 528 912 480
WIRE 912 528 528 528
WIRE 400 560 400 528
WIRE 112 608 112 416
WIRE 640 608 640 416
WIRE 640 608 112 608
FLAG 400 560 0
FLAG 224 288 0
FLAG 160 400 0
FLAG 800 96 0
FLAG 32 128 0
FLAG 1136 336 0
FLAG 1136 32 OUT5
FLAG 1584 464 0
FLAG 1408 192 0
FLAG 1344 304 0
FLAG 1984 0 0
FLAG 1216 32 0
FLAG 2320 240 0
FLAG 2320 -64 OUT
SYMBOL LTC3534 464 272 R0
SYMATTR InstName U1
SYMBOL ind 400 32 R270
WINDOW 0 32 56 VTop 2
WINDOW 3 5 56 VBottom 2
SYMATTR InstName L1
SYMATTR Value 5.6µH
SYMBOL voltage 128 128 R90
WINDOW 0 -32 56 VBottom 2
WINDOW 3 32 56 VTop 2
SYMATTR InstName V1
SYMATTR Value 6
SYMBOL res 144 112 R0
SYMATTR InstName R1
SYMATTR Value 200k
SYMBOL cap 208 224 R0
SYMATTR InstName C2
SYMATTR Value 10µF
SYMBOL res 672 16 R0
SYMATTR InstName R2
SYMATTR Value 10k
SYMBOL cap 672 144 R0
SYMATTR InstName C3
SYMATTR Value 33pF
SYMBOL cap 784 32 R0
SYMATTR InstName C4
SYMATTR Value 22µF
SYMBOL cap 736 304 R90
WINDOW 0 0 32 VBottom 2
WINDOW 3 32 32 VTop 2
SYMATTR InstName 330pF
SYMATTR Value 330pF
SYMBOL res 880 304 R90
WINDOW 0 0 56 VBottom 2
WINDOW 3 32 56 VTop 2
SYMATTR InstName R3
SYMATTR Value 15k
SYMBOL cap 800 384 R90
WINDOW 0 0 32 VBottom 2
WINDOW 3 32 32 VTop 2
SYMATTR InstName 10pF
SYMATTR Value 10pF
SYMBOL res 896 16 R0
SYMATTR InstName R4
SYMATTR Value 649k
SYMBOL res 896 384 R0
SYMATTR InstName R5
SYMATTR Value 162k
SYMBOL load2 1136 160 R0
SYMATTR InstName I1
SYMATTR Value 500m
SYMBOL LTC3534 1648 176 R0
SYMATTR InstName U2
SYMBOL ind 1584 -64 R270
WINDOW 0 32 56 VTop 2
WINDOW 3 5 56 VBottom 2
SYMATTR InstName L2
SYMATTR Value 5.6µH
SYMBOL voltage 1312 32 R90
WINDOW 0 -32 56 VBottom 2
WINDOW 3 32 56 VTop 2
SYMATTR InstName V2
SYMATTR Value 6
SYMBOL res 1328 16 R0
SYMATTR InstName R6
SYMATTR Value 200k
SYMBOL cap 1392 128 R0
SYMATTR InstName C6
SYMATTR Value 10µF
SYMBOL res 1856 -80 R0
SYMATTR InstName R7
SYMATTR Value 10k
SYMBOL cap 1856 48 R0
SYMATTR InstName C7
SYMATTR Value 33pF
SYMBOL cap 1968 -64 R0
SYMATTR InstName C8
SYMATTR Value 22µF
SYMBOL cap 1920 208 R90
WINDOW 0 0 32 VBottom 2
WINDOW 3 32 32 VTop 2
SYMATTR InstName C9
SYMATTR Value 330pF
SYMBOL res 2064 208 R90
WINDOW 0 0 56 VBottom 2
WINDOW 3 32 56 VTop 2
SYMATTR InstName R8
SYMATTR Value 15k
SYMBOL cap 1984 288 R90
WINDOW 0 0 32 VBottom 2
WINDOW 3 32 32 VTop 2
SYMATTR InstName C10
SYMATTR Value 10pF
SYMBOL res 2080 -80 R0
SYMATTR InstName R9
SYMATTR Value 373k
SYMBOL res 2080 288 R0
SYMATTR InstName R10
SYMATTR Value 162k
SYMBOL load2 2320 64 R0
SYMATTR InstName I2
SYMATTR Value 500m
SYMBOL res 1280 112 R0
SYMATTR InstName R11
SYMATTR Value 10k
SYMBOL res 96 320 R0
SYMATTR InstName R12
SYMATTR Value 10k
SYMBOL schottky 512 -128 R0
SYMATTR InstName D1
SYMATTR Value 1N5817
SYMATTR Description Diode
SYMATTR Type diode
SYMBOL schottky 384 -128 R0
SYMATTR InstName D2
SYMATTR Value 1N5817
SYMATTR Description Diode
SYMATTR Type diode
SYMBOL schottky 1696 -144 R0
SYMATTR InstName D3
SYMATTR Value 1N5817
SYMATTR Description Diode
SYMATTR Type diode
SYMBOL schottky 1552 -144 R0
SYMATTR InstName D4
SYMATTR Value 1N5817
SYMATTR Description Diode
SYMATTR Type diode
TEXT 1184 560 Left 2 !.tran 10m startup
